Assignment 1/Test_Scenario/Low_Load.txt
Low LOAD-----------------------------------------------------------------------------

=====================================================================================
| System MVA Base:      100.0 MVA                                                   |
=====================================================================================
| Bus results                                                                       |
=====================================================================================
  Bus       Bus          Voltage             Generation                  Load
   #       Label    Mag(pu)  Ang(deg)   P (pu)  Q(pu)   loading     P (pu)  Q(pu)
 -----   ---------  -------  -------  -------  --------  -------   -------  -------
  *1*      BUS1      1.000     0.00   -1.030     0.296   107.14%      -         -
   2       BUS2      0.976     6.06      -         -       -        0.150     0.090
   3       BUS3      0.977     7.08      -         -       -        0.150     0.090
   4       BUS4      0.986    10.24      -         -       -        0.150     0.090
   5       BUS5      0.987    10.56      -         -       -        0.150     0.090
   6       BUS6      0.990    11.36      -         -       -        0.150     0.090
   7       BUS7      1.000    16.58    1.800     0.287    91.14%      -         -

 ==============================================================================
| Branch flow                                                                 |
 ==============================================================================
|Branch  From   To        From Bus Injection              To Bus Injection    |
|  #     Bus    Bus    P (pu)   Q (pu)  loading        P (pu)   Q (pu) loading|
 -----  -----  -----  -------  -------- -------        ------- ------- -------
   1       2      3    -1.180   0.091    29.58%         1.183  -0.095   29.67%
   2       3      4    -1.333   0.005    33.33%         1.345  -0.002   33.62%
   3       4      5    -0.142  -0.034     3.65%         0.142  -0.033    3.65%
   4       4      6    -1.353  -0.054    33.85%         1.357   0.056   33.95%
   5       5      6    -0.292  -0.057     7.44%         0.293  -0.024    7.35%
   6       1      2    -1.030   0.296   107.14%         1.030  -0.181  104.55%
   7       6      7    -1.800  -0.121    90.20%         1.800   0.287   91.14%

-----------------------Violations!-----------------------

 --> Generator at bus 1 overloaded (Loading = 107.14  [%])
 --> Branch #6 - from bus 1 to bus 2 (ID:1 ) overloaded (fr:107.14%, to:104.55%)
